 &time_control
 run_days                            = 35,
 run_hours                           = 0,
 run_minutes                         = 0,
 run_seconds                         = 0,
 start_year                          = 2008, 2008, 2008,
 start_month                         = 10,   10,   10,
 start_day                           = 12,   12,   12,
 start_hour                          = 00,   00,   00,
 start_minute                        = 00,   00,   00,
 start_second                        = 00,   00,   00,
 end_year                            = 2008, 2008, 2008,
 end_month                           = 11,   11,   11,
 end_day                             = 16,   16,   16,
 end_hour                            = 00,   00,   00,
 end_minute                          = 00,   00,   00,
 end_second                          = 00,   00,   00,
 interval_seconds                    = 21600
 input_from_file                     = .true.,.true.,.true.,
 history_interval                    = 180,  180,  180,
 frames_per_outfile                  = 1000, 1000, 1000,
 restart                             = .false.,
 restart_interval                    = 360,
 io_form_history                     = 2
 io_form_restart                     = 2
 io_form_input                       = 2
 io_form_boundary                    = 2
 auxinput4_inname                    = "wrflowinp_d<domain>",
 auxinput4_interval                  = 360,
 io_form_auxinput4                   = 2
 debug_level                         = 0
 clubb_debug_level                   = 2
 clubb_i_sample_col                  = 0
 clubb_j_sample_col                  = 0
 /

 &domains
 time_step                           = 60,
 time_step_fract_num                 = 0,
 time_step_fract_den                 = 1,
 max_dom                             = 1,
 e_we                                = 32,    112,   94,
 e_sn                                = 31,    97,    91,
 e_vert                              = 45,    40,    40,
 p_top_requested                     = 5000,
 force_sfc_in_vinterp                = 7,
 num_metgrid_levels                  = 18,
 num_metgrid_soil_levels             = 2,
 eta_levels                          = 1.000, 0.997, 0.993, 0.988, 0.983, 
                                       0.977, 0.970, 0.962, 0.954, 0.944,
                                       0.934, 0.922, 0.909, 0.895, 0.880,
                                       0.865, 0.849, 0.833, 0.817, 0.802,
                                       0.786, 0.770, 0.754, 0.726, 0.697,
                                       0.670, 0.643, 0.618, 0.592, 0.568,
                                       0.544, 0.499, 0.457, 0.417, 0.380,
                                       0.313, 0.255, 0.204, 0.159, 0.121,
                                       0.088, 0.061, 0.037, 0.017, 0.000,
 dx                                  = 200000, 10000,  3333.33,
 dy                                  = 200000, 10000,  3333.33,
 grid_id                             = 1,     2,     3,
 parent_id                           = 0,     1,     2,
 i_parent_start                      = 1,     31,    30,
 j_parent_start                      = 1,     17,    30,
 parent_grid_ratio                   = 1,     3,     3,
 parent_time_step_ratio              = 1,     3,     3,
 feedback                            = 1,
 smooth_option                       = 0,
 hypsometric_opt                     = 1
 /

 &physics
 mp_physics                          = 10,    10,    10,
 ra_lw_physics                       = 1,     1,     1,
 ra_sw_physics                       = 1,     1,     1,
 radt                                = 15,    15,    15,
 sf_sfclay_physics                   = 1,     1,     1,
 sf_surface_physics                  = 2,     2,     2,
 bl_pbl_physics                      = 25,    25,    25,
 bldt                                = 0,     0,     0,
 cu_physics                          = 0,     0,     0,
 cudt                                = 5,     5,     5,
 isfflx                              = 1,
 ifsnow                              = 0,
 icloud                              = 1,
 surface_input_source                = 1,
 num_soil_layers                     = 4,
 sf_urban_physics                    = 0,
 sst_update                          = 1,
 usemonalb                           = .false.,
 maxiens                             = 1,
 maxens                              = 3,
 maxens2                             = 3,
 maxens3                             = 16,
 ensdim                              = 144,
 lh_microphys_calls                  = 2,
 lh_microphys_type                   = 3,
 l_use_cldcov_rcm_lyr                = .true.,
 l_use_precip_frac                   = .false.,
 l_use_hf_driver                     = .false.,
 l_const_Nc_in_cloud                 = .false.,
 /

 &fdda
 /

 &scm
 scm_force                           = 0,
 /        

 &dynamics
 w_damping                           = 1,
 rk_ord                              = 3,
 diff_opt                            = 1,
 km_opt                              = 4,
 diff_6th_opt                        = 0,      0,      0,
 diff_6th_factor                     = 0.12,   0.12,   0.12,
 base_temp                           = 290.
 damp_opt                            = 3,
 gwd_opt                             = 0,
 zdamp                               = 5000.,  5000.,  5000.,
 dampcoef                            = 0.2,    0.2,    0.2,
 khdif                               = 0,      0,      0,
 kvdif                               = 0,      0,      0,
 non_hydrostatic                     = .true., .true., .true.,
 moist_adv_opt                       = 1,      1,      1,     
 scalar_adv_opt                      = 1,      1,      1,     
 chem_adv_opt                        = 1,      1,      1,     
 tke_adv_opt                         = 1,      1,      1,     
 /

 &bdy_control
 spec_bdy_width                      = 5,
 spec_zone                           = 1,
 relax_zone                          = 4,
 specified                           = .true., .false.,.false.,
 spec_exp                            = 0
 nested                              = .false., .true., .true.,
 /

 &grib2
 /

 &namelist_quilt
 nio_tasks_per_group = 0,
 nio_groups = 1,
 /
