 &time_control
 run_days                            = 0,
 run_hours                           = 14,
 run_minutes                         = 30,
 run_seconds                         = 0,
 start_year                          = 1997, 1997, 1997,
 start_month                         = 06,   06,   06,
 start_day                           = 21,   21,   21,
 start_hour                          = 11,   11,   11,
 start_minute                        = 30,   30,   30,
 start_second                        = 00,   00,   00,
 end_year                            = 1997, 1997, 1997,
 end_month                           = 06,   06,   06,
 end_day                             = 22,   22,   22,
 end_hour                            = 02,   02,   02,
 end_minute                          = 00,   00,   00,
 end_second                          = 00,   00,   00,
 history_interval                    = 5,    5,    5,
 frames_per_outfile                  = 175,  175,  175,
 restart                             = .false.,
 restart_interval                    = 435,
 io_form_history                     = 2
 io_form_restart                     = 2
 io_form_input                       = 2
 io_form_boundary                    = 2
 auxinput3_inname                    = "force_ideal_ARM.nc"
 auxinput3_interval_h                = 15
 io_form_auxinput3                   = 2
 debug_level                         = 100
 /

 &domains
 time_step                           = 60,
 time_step_fract_num                 = 0,
 time_step_fract_den                 = 1,
 max_dom                             = 1,
 s_we                                = 1,     1,     1,
 e_we                                = 4,     4,     4,
 s_sn                                = 1,     1,     1,
 e_sn                                = 4,     4,     4,
 s_vert                              = 1,     1,     1,
 e_vert                              = 110,   110,   110,
 dx                                  = 100000,  100000,  100000,
 dy                                  = 100000,  100000,  100000,
 ztop                                = 4400,  4400,  4400,
 grid_id                             = 1,     2,     3,
 parent_id                           = 0,     1,     2,
 i_parent_start                      = 0,     15,    15,
 j_parent_start                      = 0,     15,    15,
 parent_grid_ratio                   = 1,     3,     3,
 parent_time_step_ratio              = 1,     3,     3,
 feedback                            = 1,
 smooth_option                       = 0,
 hypsometric_opt                     = 1
 /

 &scm
 scm_force                           = 1
 num_force_layers                    = 2
 scm_lat                             = 36.000
 scm_lon                             = -97.500
 scm_th_adv                          = .false.
 scm_wind_adv                        = .false.
 scm_qv_adv                          = .false.
 scm_vert_adv                        = .false.
 /

 &physics
 mp_physics                          = 0,     1,     1,
 ra_lw_physics                       = 0,     0,     0,
 ra_sw_physics                       = 0,     0,     0,
 radt                                = 30,    30,    30,
 sf_sfclay_physics                   = 40,    40,    40,
 sf_surface_physics                  = 0,     0,     0,
 bl_pbl_physics                      = 25,    25,    25,
 bldt                                = 0,     0,     0,
 cu_physics                          = 24,    24,    24,
 cudt                                = 0,     0,     0,
 isfflx                              = 1,
 ifsnow                              = 0,
 icloud                              = 1,
 num_soil_layers                     = 5,
 mp_zero_out                         = 0,
 /

 &fdda
 /

 &dynamics
 rk_ord                              = 3,
 diff_opt                            = 2,
 km_opt                              = 2,
 damp_opt                            = 0,
 zdamp                               = 900.,   900.,   900.,
 dampcoef                            = 0.1,    0.1,    0.1
 khdif                               = 500,    500,    500,
 kvdif                               = 500,    500,    500,
 smdiv                               = 0.1,    0.1,    0.1,
 emdiv                               = 0.01,   0.01,   0.01,
 epssm                               = 0.1,    0.1,    0.1
 time_step_sound                     = 6,      6,      6,
 h_mom_adv_order                     = 5,      5,      5,
 v_mom_adv_order                     = 3,      3,      3,
 h_sca_adv_order                     = 5,      5,      5,
 v_sca_adv_order                     = 3,      3,      3,
 moist_adv_opt                       = 1,      1,      1,     
 scalar_adv_opt                      = 1,      1,      1,     
 chem_adv_opt                        = 1,      1,      1,     
 tke_adv_opt                         = 1,      1,      1,     
 non_hydrostatic                     = .true., .true., .true.,
 mix_full_fields                     = .true., .true., .true.,
 pert_coriolis                       = .true., .true., .true.,
 /

 &bdy_control
 periodic_x                          = .true., .false.,.false.,
 symmetric_xs                        = .false.,.false.,.false.,
 symmetric_xe                        = .false.,.false.,.false.,
 open_xs                             = .false.,.false.,.false.,
 open_xe                             = .false.,.false.,.false.,
 periodic_y                          = .true., .false.,.false.,
 symmetric_ys                        = .false.,.false.,.false.,
 symmetric_ye                        = .false.,.false.,.false.,
 open_ys                             = .false.,.false.,.false.,
 open_ye                             = .false.,.false.,.false.,
 nested                              = .false.,.true., .true.,
 /

 &grib2
 /

 &namelist_quilt
 nio_tasks_per_group = 0,
 nio_groups = 1,
 /
