 &time_control
 run_days                            =  0,
 run_hours                           =  4,
 run_minutes                         =  0,
 run_seconds                         =  0,
 start_year                          = 2004, 2004, 2004,
 start_month                         =   12,   12,   12,
 start_day                           =   16,   16,   16,
 start_hour                          =   00,   00,   00,
 start_minute                        =   00,   00,   00,
 start_second                        =   00,   00,   00,
 end_year                            = 2004, 2004, 2004,
 end_month                           =   12,   12,   12,
 end_day                             =   16,   16,   16,
 end_hour                            =   18,   18,   18,
 end_minute                          =   00,   00,   00,
 end_second                          =   00,   00,   00,
 history_interval                    =   10,   10,   10,
 frames_per_outfile                  =    1,    1,    1,
 restart                             = .FALSE.
 restart_interval                    = 240
 io_form_history                     = 2
 io_form_auxhist2                    = 2
 io_form_restart                     = 2
 io_form_input                       = 2
 io_form_boundary                    = 2
!! auxinput3_inname                    = "force_ideal_RICO.nc"
!! auxinput3_interval_h                = 24
 debug_level                         = 0
 /

 &domains
 time_step                           = 1
 time_step_fract_num                 = 0,
 time_step_fract_den                 = 1,
 max_dom                             = 1,
 s_we                                = 1,    1,    1,
 e_we                                = 129,  11,   11,
 s_sn                                = 1,    1,    1,
 e_sn                                = 129,  11,   11,
 s_vert                              = 1,    1,    1,
 e_vert                              = 100,  100,  100,
 dx                                  = 100,  100,  100,
 dy                                  = 100,  100,  100,
 ztop                                = 4000, 4000, 4000,
 grid_id                             = 1,    2,    3,
 parent_id                           = 0,    1,    2,
 i_parent_start                      = 1,    1,    1,
 j_parent_start                      = 1,    1,    1,
 parent_grid_ratio                   = 1,    1,    1,
 parent_time_step_ratio              = 1,    1,    1,
 feedback                            = 0,
 smooth_option                       = 1
 /

 &physics
 mp_physics                          = 18, 18, 18,
 ra_lw_physics                       = 0,  0,  0,
 ra_sw_physics                       = 0,  0,  0,
 radt                                = 0,  0,  0,
 sf_sfclay_physics                   = 1,  1,  1,
 sf_surface_physics                  = 0,  0,  0,
 bl_pbl_physics                      = 0,  0,  0,
 bldt                                = 0,  0,  0,
 cu_physics                          = 0,  0,  0,
 cudt                                = 0,  0,  0,
 isfflx                              = 1,
 ifsnow                              = 0,
 icloud                              = 1,
 num_soil_layers                     = 5,
 mp_zero_out                         = 0,
 /

 &fdda
 /

 &dynamics
 rk_ord                              = 3,
 diff_opt                            = 2,
 km_opt                              = 2,
 damp_opt                            = 0,
 w_damping                           = 0,
 zdamp                               = 300., 300., 300.,
 dampcoef                            = 0.1,  0.1,  0.1,
 base_temp                           = 299.8,
 base_pres                           = 100000.,
 base_lapse                          = 50.,
 khdif                               = 500,  500,  500,
 kvdif                               = 500,  500,  500,
 c_s                                 = 0.18, 0.18, 0.18,
 c_k                                 = 0.10, 0.10, 0.10,
 mix_isotropic                       = 1,    1,    1,
 smdiv                               = 0.1,  0.1,  0.1,
 emdiv                               = 0.01, 0.01, 0.01,
 epssm                               = 0.1,  0.1,  0.1,
 pert_coriolis                       = .true., .true., .true.,
 top_lid                             = .true., .true., .true.,
 tke_heat_flux                       = 0.02,   0.02,   0.02,
 tke_drag_coefficient                = 0.0013, 0.0013, 0.0013,
 mix_full_fields                     = .true., .true., .true.,
 non_hydrostatic                     = .true., .true., .true.,
 time_step_sound                     = 8, 8, 8,
 h_mom_adv_order                     = 5, 5, 5,
 v_mom_adv_order                     = 3, 3, 3,
 h_sca_adv_order                     = 5, 5, 5,
 v_sca_adv_order                     = 3, 3, 3,
 moist_adv_opt                       = 2, 2, 2,
 scalar_adv_opt                      = 2, 2, 2,
 chem_adv_opt                        = 2, 2, 2,
 tke_adv_opt                         = 2, 2, 2,
 /

 &bdy_control
 periodic_x                          = .true.,  .false., .false.,
 periodic_y                          = .true.,  .false., .false.,
 nested                              = .false., .false., .false.,
 /

 &grib2
 /

 &namelist_quilt
 nio_tasks_per_group = 0,
 nio_groups = 1,
 /
